


*MATERIAL, NAME=STEEL			
*ELASTIC
210000, 0.33
*DENSITY
8.3e-9
*SOLID SECTION, ELSET=Fork,MATERIAL=STEEL
