*include, input=mesh.inp

*material, name=steel
*elastic
210000,0.3
*density
7.85e-9

*solid section, elset=Eall, material=steel, 


*step
*frequency
10
*node file
U
*end step
